-------------------------------------------------------
          Amber 11 SANDER                              2010
          -------------------------------------------------------

  [-O]verwriting output

File Assignments:

 Here is the input file:

short md with igb1
&cntrl
   imin = 0, nstlim = 10000, dt = 0.001, nrespa = 1,
   ntx=5, irest = 1, ig = -1,
   ntwx = 1000, ioutfm = 1, ntpr = 1000, ntwr = 10000,
   ntt = 3, gamma_ln = 5, temp0 = 300.0, tempi = 300.0,
   ntc = 2, ntf = 2, ntb = 0, cut = 999.0,
   igb = 1, saltcon = 0.0, gbsa = 0,
&end

Note: ig = -1. Setting random seed based on wallclock time in microseconds
      and disabling the synchronization of random numbers between 1 tasks
      to improve performance.

--------------------------------------------------------------------------------
   1.  RESOURCE   USE:
--------------------------------------------------------------------------------

 NATOM  =     220 NTYPES =      12 NBONH =     104 MBONA  =     123
 NTHETH =     233 MTHETA =     169 NPHIH =     481 MPHIA  =     372
 NHPARM =       0 NPARM  =       0 NNB   =    1211 NRES   =      13
 NBONA  =     123 NTHETA =     169 NPHIA =     372 NUMBND =      31
 NUMANG =      68 NPTRA  =      35 NATYP =      21 NPHB   =       0
 IFBOX  =       0 NMXRS  =      24 IFCAP =       0 NEXTRA =       0
 NCOPY  =       0

 Implicit solvent radii are modified Bondi radii (mbondi)
--------------------------------------------------------------------------------
   2.  CONTROL  DATA  FOR  THE  RUN
--------------------------------------------------------------------------------

General flags:
     imin    =       0, nmropt  =       0

Nature and format of input:
     ntx     =       5, irest   =       1, ntrx    =       1

Nature and format of output:
     ntxo    =       1, ntpr    =    1000, ntrx    =       1, ntwr    =   10000
     iwrap   =       0, ntwx    =    1000, ntwv    =       0, ntwe    =       0
     ioutfm  =       1, ntwprt  =       0, idecomp =       0, rbornstat=      0

Potential function:
     ntf     =       2, ntb     =       0, igb     =       1, nsnb    =      25
     ipol    =       0, gbsa    =       0, iesp    =       0
     dielc   =   1.00000, cut     = 999.00000, intdiel =   1.00000
     saltcon =   0.00000, offset  =   0.09000, gbalpha=    1.00000
     gbbeta  =   0.00000, gbgamma =   0.00000, surften =   0.00500
     rdt     =   0.00000, rgbmax  =  25.00000  extdiel =  78.50000
     alpb  =        0

Frozen or restrained atoms:
     ibelly  =       0, ntr     =       0

Molecular dynamics:
     nstlim  =     10000, nscm    =      1000, nrespa  =         1
     t       =   0.00000, dt      =   0.00100, vlimit  =  20.00000

Langevin dynamics temperature regulation:
     ig      =  171315
     temp0   = 300.00000, tempi   = 300.00000, gamma_ln=   5.00000

SHAKE:
     ntc     =       2, jfastw  =       0
     tol     =   0.00001

--------------------------------------------------------------------------------
   3.  ATOMIC COORDINATES AND VELOCITIES
--------------------------------------------------------------------------------

 begin time read from input coords =     1.000 ps

 Number of triangulated 3-point waters found:        0

--------------------------------------------------------------------------------
   4.  RESULTS
 NSTEP =     1000   TIME(PS) =       2.000  TEMP(K) =   310.58  PRESS =     0.0
 Etot   =       -88.9869  EKtot   =       171.5762  EPtot      =      -260.5631
 BOND   =        30.2604  ANGLE   =       100.2719  DIHED      =       131.8541
 1-4 NB =        40.9369  1-4 EEL =       650.6909  VDWAALS    =       -79.8350
 EELEC  =      -850.9613  EGB     =      -283.7809  RESTRAINT  =         0.0000
 ------------------------------------------------------------------------------

      A V E R A G E S   O V E R      10 S T E P S

 NSTEP =    10000   TIME(PS) =      11.000  TEMP(K) =   308.49  PRESS =     0.0
 Etot   =       -87.9103  EKtot   =       170.4244  EPtot      =      -258.3347
 BOND   =        42.3111  ANGLE   =       100.5176  DIHED      =       125.7401
 1-4 NB =        41.6084  1-4 EEL =       650.5505  VDWAALS    =       -78.9993
 EELEC  =      -858.8344  EGB     =      -281.2287  RESTRAINT  =         0.0000
 ------------------------------------------------------------------------------

      R M S  F L U C T U A T I O N S

 NSTEP =    10000   TIME(PS) =      11.000  TEMP(K) =    21.66  PRESS =     0.0
 Etot   =        13.0818  EKtot   =        11.9673  EPtot      =         5.0452
 BOND   =         7.1535  ANGLE   =         5.8870  DIHED      =         3.1424
 1-4 NB =         1.1372  1-4 EEL =         7.4464  VDWAALS    =         3.9473
 EELEC  =        17.3764  EGB     =        17.0072  RESTRAINT  =         0.0000
 ------------------------------------------------------------------------------
