-------------------------------------------------------
          Amber 11 SANDER                              2010
          -------------------------------------------------------

  [-O]verwriting output

File Assignments:

 Here is the input file:

short md with igb1
&cntrl
   imin = 0, nstlim = 100000, dt = 0.001, nrespa = 1,
   ntx=5, irest = 1, ig = -1,
   ntwx = 1000, ioutfm = 1, ntpr = 1000, ntwr = 10000,
   ntt = 3, gamma_ln = 5, temp0 = 300.0, tempi = 300.0,
   ntc = 2, ntf = 2, ntb = 0, cut = 999.0,
   igb = 1, saltcon = 0.0, gbsa = 0,
&end

Note: ig = -1. Setting random seed based on wallclock time in microseconds
      and disabling the synchronization of random numbers between 1 tasks
      to improve performance.

--------------------------------------------------------------------------------
   1.  RESOURCE   USE:
--------------------------------------------------------------------------------

 NATOM  =     220 NTYPES =      12 NBONH =     104 MBONA  =     123
 NTHETH =     233 MTHETA =     169 NPHIH =     481 MPHIA  =     372
 NHPARM =       0 NPARM  =       0 NNB   =    1211 NRES   =      13
 NBONA  =     123 NTHETA =     169 NPHIA =     372 NUMBND =      31
 NUMANG =      68 NPTRA  =      35 NATYP =      21 NPHB   =       0
 IFBOX  =       0 NMXRS  =      24 IFCAP =       0 NEXTRA =       0
 NCOPY  =       0

 Implicit solvent radii are modified Bondi radii (mbondi)
--------------------------------------------------------------------------------
   2.  CONTROL  DATA  FOR  THE  RUN
--------------------------------------------------------------------------------

General flags:
     imin    =       0, nmropt  =       0

Nature and format of input:
     ntx     =       5, irest   =       1, ntrx    =       1

Nature and format of output:
     ntxo    =       1, ntpr    =    1000, ntrx    =       1, ntwr    =   10000
     iwrap   =       0, ntwx    =    1000, ntwv    =       0, ntwe    =       0
     ioutfm  =       1, ntwprt  =       0, idecomp =       0, rbornstat=      0

Potential function:
     ntf     =       2, ntb     =       0, igb     =       1, nsnb    =      25
     ipol    =       0, gbsa    =       0, iesp    =       0
     dielc   =   1.00000, cut     = 999.00000, intdiel =   1.00000
     saltcon =   0.00000, offset  =   0.09000, gbalpha=    1.00000
     gbbeta  =   0.00000, gbgamma =   0.00000, surften =   0.00500
     rdt     =   0.00000, rgbmax  =  25.00000  extdiel =  78.50000
     alpb  =        0

Frozen or restrained atoms:
     ibelly  =       0, ntr     =       0

Molecular dynamics:
     nstlim  =    100000, nscm    =      1000, nrespa  =         1
     t       =   0.00000, dt      =   0.00100, vlimit  =  20.00000

Langevin dynamics temperature regulation:
     ig      =  533925
     temp0   = 300.00000, tempi   = 300.00000, gamma_ln=   5.00000

SHAKE:
     ntc     =       2, jfastw  =       0
     tol     =   0.00001

--------------------------------------------------------------------------------
   3.  ATOMIC COORDINATES AND VELOCITIES
--------------------------------------------------------------------------------

 begin time read from input coords =    11.000 ps

 Number of triangulated 3-point waters found:        0

--------------------------------------------------------------------------------
   4.  RESULTS
 NSTEP =     1000   TIME(PS) =      12.000  TEMP(K) =   275.64  PRESS =     0.0
 Etot   =      -115.8913  EKtot   =       152.2741  EPtot      =      -268.1654
 BOND   =        38.1638  ANGLE   =        95.5998  DIHED      =       125.9497
 1-4 NB =        40.8750  1-4 EEL =       656.3905  VDWAALS    =       -78.0638
 EELEC  =      -878.0981  EGB     =      -268.9823  RESTRAINT  =         0.0000
 ------------------------------------------------------------------------------

      A V E R A G E S   O V E R     100 S T E P S

 NSTEP =   100000   TIME(PS) =     111.000  TEMP(K) =   297.48  PRESS =     0.0
 Etot   =      -101.3899  EKtot   =       164.3401  EPtot      =      -265.7300
 BOND   =        42.6308  ANGLE   =        94.3766  DIHED      =       124.1537
 1-4 NB =        41.9563  1-4 EEL =       661.4997  VDWAALS    =       -77.3863
 EELEC  =      -872.4958  EGB     =      -280.4649  RESTRAINT  =         0.0000
 ------------------------------------------------------------------------------

      R M S  F L U C T U A T I O N S

 NSTEP =   100000   TIME(PS) =     111.000  TEMP(K) =    17.31  PRESS =     0.0
 Etot   =        14.2373  EKtot   =         9.5614  EPtot      =        10.7172
 BOND   =         5.3138  ANGLE   =         7.6841  DIHED      =         4.4410
 1-4 NB =         2.4951  1-4 EEL =         8.4499  VDWAALS    =         3.4285
 EELEC  =        23.2502  EGB     =        19.5488  RESTRAINT  =         0.0000
 ------------------------------------------------------------------------------
